test/data/case3.m
function mpc = case3
mpc.version = '2';
mpc.baseMVA = 100;
mpc.bus = [
    1 3 0.0 0.0 0 0 1 1.06 0.0 230 1 1.06 0.94;
    2 2 21.7 12.7 0 0 1 1.045 -4.98 230 1 1.06 0.94;
    3 1 94.2 19.0 0 0 1 1.01 -12.72 230 1 1.06 0.94;
];
mpc.gen = [
    1 80.0 10.0 100.0 -100.0 1.06 100 1 250 10;
    2 40.0 42.4 50.0 -40.0 1.045 100 1 300 10;
];
mpc.branch = [
    1 2 0.010 0.085 0.176 250 250 250 0 0 1 -360 360;
    1 3 0.017 0.092 0.158 250 250 250 0 0 1 -360 360;
    2 3 0.032 0.161 0.306 150 150 150 0 0 1 -360 360;
];
end
